1

   Abaqus 2024.HF1                                  Date 13-9ÔÂ-2024   Time 16:21:13
   For use by Supplied by Team-SolidSQUAD under license from Dassault Systemes or its subsidiary.

 Applying concentrated forces at the driving points                              
 Computation of effective elastic material properties                            
 STEP    1     INCREMENT     1     STEP TIME    0.00    


                        S T E P       1     S T A T I C   A N A L Y S I S


          Computation of effective elastic material properties                            

          FIXED TIME INCREMENTS
          TIME INCREMENT IS                                    2.220E-16
          TIME PERIOD IS                                       2.220E-16

     LINEAR EQUATION SOLVER TYPE         DIRECT SPARSE

     THIS IS A LINEAR PERTURBATION STEP.
     ALL LOADS ARE DEFINED AS CHANGE IN LOAD TO THE REFERENCE STATE

     EXTRAPOLATION WILL NOT BE USED

     CHARACTERISTIC ELEMENT LENGTH      2.29    

     DETAILS REGARDING ACTUAL SOLUTION WAVEFRONT REQUESTED

     DETAILED OUTPUT OF DIAGNOSTICS TO DATABASE REQUESTED

     PRINT OF INCREMENT NUMBER, TIME, ETC., TO THE MESSAGE FILE EVERY     1  INCREMENTS

     ELEMENT OPERATIONS WILL BE CARRIED OUT IN PARALLEL USING   2 THREADS ON 1 DOMAIN

     PARALLEL CONTACT TRACKING ENABLED


     COLLECTING MODEL CONSTRAINT INFORMATION FOR OVERCONSTRAINT CHECKS

     COLLECTING STEP CONSTRAINT INFORMATION FOR OVERCONSTRAINT CHECKS


  INCREMENT     1 STARTS. ATTEMPT NUMBER  1, TIME INCREMENT  2.220E-16
 
     INITIAL ELEMENT LOAD BALANCE
            DOMAIN    1     THREAD    NUMBER OF ELEMENTS
                              1            1024
                              2            1056
 
	SYMMETRIC NEW DIRECT SPARSE SOLVER RUNNING ON
 	1 HOST x 1 MPI RANK PER HOST x 2 THREADS PER RANK
        NUMBER OF EQUATIONS:  8310
        NUMBER OF RHS:        6
        NUMBER OF FLOPS:      2.445e+09
        SOLVER ELAPSED TIME:  104ms

 ITERATION SUMMARY FOR THE INCREMENT:   1 TOTAL ITERATIONS, OF WHICH
   0 ARE SEVERE DISCONTINUITY ITERATIONS AND  1 ARE EQUILIBRIUM ITERATIONS.

 TIME INCREMENT COMPLETED  2.220E-16,  FRACTION OF STEP COMPLETED   1.00    
 STEP TIME COMPLETED       2.220E-16,  TOTAL TIME COMPLETED         0.00    
1

   Abaqus 2024.HF1                                  Date 13-9ÔÂ-2024   Time 16:21:14
   For use by Supplied by Team-SolidSQUAD under license from Dassault Systemes or its subsidiary.

 Applying concentrated forces at the driving points                              
 Computation of coefficients of thermal expansion                                
 STEP    2     INCREMENT     1     STEP TIME    0.00    


                        S T E P       2     S T A T I C   A N A L Y S I S


          Computation of coefficients of thermal expansion                                

          FIXED TIME INCREMENTS
          TIME INCREMENT IS                                    2.220E-16
          TIME PERIOD IS                                       2.220E-16

     LINEAR EQUATION SOLVER TYPE         DIRECT SPARSE

     THIS IS A LINEAR PERTURBATION STEP.
     ALL LOADS ARE DEFINED AS CHANGE IN LOAD TO THE REFERENCE STATE

     EXTRAPOLATION WILL NOT BE USED

     CHARACTERISTIC ELEMENT LENGTH      2.29    

     DETAILS REGARDING ACTUAL SOLUTION WAVEFRONT REQUESTED

     DETAILED OUTPUT OF DIAGNOSTICS TO DATABASE REQUESTED

     PRINT OF INCREMENT NUMBER, TIME, ETC., TO THE MESSAGE FILE EVERY     1  INCREMENTS

     ELEMENT OPERATIONS WILL BE CARRIED OUT IN PARALLEL USING   2 THREADS ON 1 DOMAIN

     COLLECTING STEP CONSTRAINT INFORMATION FOR OVERCONSTRAINT CHECKS


  INCREMENT     1 STARTS. ATTEMPT NUMBER  1, TIME INCREMENT  2.220E-16
 
     INITIAL ELEMENT LOAD BALANCE
            DOMAIN    1     THREAD    NUMBER OF ELEMENTS
                              1            1024
                              2            1056
 
	SYMMETRIC NEW DIRECT SPARSE SOLVER RUNNING ON
 	1 HOST x 1 MPI RANK PER HOST x 2 THREADS PER RANK
        NUMBER OF EQUATIONS:  8310
        NUMBER OF RHS:        1
        NUMBER OF FLOPS:      2.445e+09
        SOLVER ELAPSED TIME:  52ms

 ITERATION SUMMARY FOR THE INCREMENT:   1 TOTAL ITERATIONS, OF WHICH
   0 ARE SEVERE DISCONTINUITY ITERATIONS AND  1 ARE EQUILIBRIUM ITERATIONS.

 TIME INCREMENT COMPLETED  2.220E-16,  FRACTION OF STEP COMPLETED   1.00    
 STEP TIME COMPLETED       2.220E-16,  TOTAL TIME COMPLETED         0.00    


          THE ANALYSIS HAS BEEN COMPLETED



     ANALYSIS SUMMARY:
     TOTAL OF          2  INCREMENTS
                       0  CUTBACKS IN AUTOMATIC INCREMENTATION
                       2  ITERATIONS INCLUDING CONTACT ITERATIONS IF PRESENT
                       2  PASSES THROUGH THE EQUATION SOLVER OF WHICH 
                       2  INVOLVE MATRIX DECOMPOSITION, INCLUDING
                       0  DECOMPOSITION(S) OF THE MASS MATRIX
                       1  REORDERING OF EQUATIONS TO MINIMIZE WAVEFRONT
                       0  ADDITIONAL RESIDUAL EVALUATIONS FOR LINE SEARCHES
                       0  ADDITIONAL OPERATOR EVALUATIONS FOR LINE SEARCHES
                       3  WARNING MESSAGES DURING USER INPUT PROCESSING
                       0  WARNING MESSAGES DURING ANALYSIS
                       0  ANALYSIS WARNINGS ARE NUMERICAL PROBLEM MESSAGES
                       0  ANALYSIS WARNINGS ARE NEGATIVE EIGENVALUE MESSAGES
                       0  ERROR MESSAGES



     JOB TIME SUMMARY
       USER TIME (SEC)      =     0.20    
       SYSTEM TIME (SEC)    =     0.10    
       TOTAL CPU TIME (SEC) =     0.30    
       WALLCLOCK TIME (SEC) =            1
       MEMORY PEAK (GB)     =            0
